Circuit: *** SPICE deck for cell NAND_sim{sch} from library tutorial_4

Ignoring BSIM parameter XL
Ignoring BSIM parameter XW
Ignoring BSIM parameter XL
Ignoring BSIM parameter XW
Warning: Pd = 0 is less than W.
Warning: Ps = 0 is less than W.
Warning: Pd = 0 is less than W.
Warning: Ps = 0 is less than W.
Direct Newton iteration for .op point succeeded.

Date: Mon May 16 23:39:10 2022
Total elapsed time: 0.161 seconds.

tnom = 27
temp = 27
method = modified trap
totiter = 2119
traniter = 2109
tranpoints = 1054
accept = 1052
rejected = 2
matrix size = 6
fillins = 0
solver = Normal
Matrix Compiler1: 218 bytes object code size  0.2/0.2/[0.2]
Matrix Compiler2: off  [0.2]/0.2/0.2


