Circuit: *** SPICE deck for cell R_divider{lay} from library teste1

Direct Newton iteration for .op point succeeded.

Date: Wed May 18 16:19:08 2022
Total elapsed time: 0.017 seconds.

tnom = 27
temp = 27
method = modified trap
totiter = 2091
traniter = 2088
tranpoints = 1045
accept = 1045
rejected = 0
matrix size = 3
fillins = 0
solver = Normal
Matrix Compiler1: 50 bytes object code size  0.0/0.0/[0.0]
Matrix Compiler2: 175 bytes object code size  0.1/0.1/[0.1]

